
  -OEChem-06112015403D

 33 34  0     1  0  0  0  0  0999 V2000
   -3.8412   -0.9287    1.6198 C   0  0  0  0  0  0  0  0  0  0  0  0
   -3.6461   -2.2983    1.7978 C   0  0  0  0  0  0  0  0  0  0  0  0
   -2.8252   -0.0310    1.9479 C   0  0  0  0  0  0  0  0  0  0  0  0
   -2.4350   -2.7702    2.3041 C   0  0  0  0  0  0  0  0  0  0  0  0
   -1.6141   -0.5029    2.4542 C   0  0  0  0  0  0  0  0  0  0  0  0
   -1.4190   -1.8726    2.6323 C   0  0  0  0  0  0  0  0  0  0  0  0
    0.7505    0.2660    1.9818 C   0  0  0  0  0  0  0  0  0  0  0  0
    0.7027    0.6602    0.5188 C   0  0  0  0  0  0  0  0  0  0  0  0
    0.2932    2.1174    0.3785 C   0  0  0  0  0  0  0  0  0  0  0  0
   -1.0017    2.4136    1.1293 C   0  0  0  0  0  0  0  0  0  0  0  0
   -0.8836    2.0118    2.6034 C   0  0  0  0  0  0  0  0  0  0  0  0
   -0.5256    0.5162    2.8037 C   0  0  1  0  0  0  0  0  0  0  0  0
   -1.3260    0.6268    5.1817 C   0  0  0  0  0  0  0  0  0  0  0  0
   -0.1805    0.3849    4.2720 N   0  3  0  0  0  0  0  0  0  0  0  0
    1.7481   -0.2798    2.4542 O   0  0  0  0  0  0  0  0  0  0  0  0
    0.0657   -2.4936    3.2560 Cl  0  0  0  0  0  0  0  0  0  0  0  0
   -4.7840   -0.5615    1.2248 H   0  0  0  0  0  0  0  0  0  0  0  0
   -4.4369   -2.9970    1.5411 H   0  0  0  0  0  0  0  0  0  0  0  0
   -2.9875    1.0342    1.8049 H   0  0  0  0  0  0  0  0  0  0  0  0
   -2.2985   -3.8406    2.4358 H   0  0  0  0  0  0  0  0  0  0  0  0
    1.6937    0.5097    0.0772 H   0  0  0  0  0  0  0  0  0  0  0  0
    0.0027   -0.0014   -0.0018 H   0  0  0  0  0  0  0  0  0  0  0  0
    1.0906    2.7602    0.7724 H   0  0  0  0  0  0  0  0  0  0  0  0
    0.1728    2.3684   -0.6812 H   0  0  0  0  0  0  0  0  0  0  0  0
   -1.2258    3.4843    1.0605 H   0  0  0  0  0  0  0  0  0  0  0  0
   -1.8370    1.8834    0.6569 H   0  0  0  0  0  0  0  0  0  0  0  0
   -0.1127    2.6443    3.0654 H   0  0  0  0  0  0  0  0  0  0  0  0
   -1.8310    2.2438    3.1071 H   0  0  0  0  0  0  0  0  0  0  0  0
   -1.7038    1.6314    4.9829 H   0  0  0  0  0  0  0  0  0  0  0  0
   -2.0861   -0.1276    4.9698 H   0  0  0  0  0  0  0  0  0  0  0  0
   -0.9622    0.5403    6.2073 H   0  0  0  0  0  0  0  0  0  0  0  0
    0.1972   -0.5547    4.4358 H   0  0  0  0  0  0  0  0  0  0  0  0
    0.5771    1.0415    4.4892 H   0  0  0  0  0  0  0  0  0  0  0  0
  1  2  2  0  0  0  0
  1  3  1  0  0  0  0
  2  4  1  0  0  0  0
  3  5  2  0  0  0  0
  4  6  2  0  0  0  0
  5  6  1  0  0  0  0
  5 12  1  0  0  0  0
  6 16  1  0  0  0  0
  7  8  1  0  0  0  0
  7 12  1  0  0  0  0
  7 15  2  0  0  0  0
  8  9  1  0  0  0  0
  9 10  1  0  0  0  0
 10 11  1  0  0  0  0
 11 12  1  0  0  0  0
 12 14  1  0  0  0  0
 13 14  1  0  0  0  0
  1 17  1  0  0  0  0
  2 18  1  0  0  0  0
  3 19  1  0  0  0  0
  4 20  1  0  0  0  0
  8 21  1  0  0  0  0
  8 22  1  0  0  0  0
  9 23  1  0  0  0  0
  9 24  1  0  0  0  0
 10 25  1  0  0  0  0
 10 26  1  0  0  0  0
 11 27  1  0  0  0  0
 11 28  1  0  0  0  0
 13 29  1  0  0  0  0
 13 30  1  0  0  0  0
 13 31  1  0  0  0  0
 14 32  1  0  0  0  0
 14 33  1  0  0  0  0
M  CHG  1  14   1
M  END
> <OE_AM1_SCF_ENERGY>
124.9343

$$$$
