
  -OEChem-06162008573D

 44 46  0     1  0  0  0  0  0999 V2000
   -5.8641    0.6778   -5.1026 C   0  0  0  0  0  0  0  0  0  0  0  0
   -5.6115   -0.6936   -5.0742 C   0  0  0  0  0  0  0  0  0  0  0  0
   -5.0542    1.5513   -4.3767 C   0  0  0  0  0  0  0  0  0  0  0  0
   -4.5492   -1.1917   -4.3198 C   0  0  0  0  0  0  0  0  0  0  0  0
   -3.9919    1.0533   -3.6223 C   0  0  0  0  0  0  0  0  0  0  0  0
   -3.7394   -0.3183   -3.5939 C   0  0  0  0  0  0  0  0  0  0  0  0
   -2.6087   -0.8485   -2.7909 C   0  0  0  0  0  0  0  0  0  0  0  0
   -2.3466    0.3563    0.5841 C   0  0  0  0  0  0  0  0  0  0  0  0
    1.9163   -0.7486   -0.3047 C   0  0  0  0  0  0  0  0  0  0  0  0
    0.9971   -1.5880    0.5937 C   0  0  0  0  0  0  0  0  0  0  0  0
    0.2539    0.8601   -1.3948 C   0  0  0  0  0  0  0  0  0  0  0  0
   -1.2890   -0.5813    0.0677 C   0  0  2  0  0  0  0  0  0  0  0  0
    1.3199    0.6609   -0.3063 C   0  0  1  0  0  0  0  0  0  0  0  0
   -0.1078   -0.6353    1.0609 C   0  0  2  0  0  0  0  0  0  0  0  0
   -0.8372   -0.2214   -1.3608 C   0  0  1  0  0  0  0  0  0  0  0  0
    1.4541    1.0168    2.2060 C   0  0  0  0  0  0  0  0  0  0  0  0
   -3.7547    0.7633    2.4376 C   0  0  0  0  0  0  0  0  0  0  0  0
    0.5867    0.7178    1.0181 N   0  3  1  0  0  0  0  0  0  0  0  0
   -2.3342   -2.0366   -2.7234 O   0  0  0  0  0  0  0  0  0  0  0  0
   -2.7658    1.3243   -0.0357 O   0  0  0  0  0  0  0  0  0  0  0  0
   -1.9475    0.1626   -2.1639 O   0  0  0  0  0  0  0  0  0  0  0  0
   -2.7455   -0.0453    1.8245 O   0  0  0  0  0  0  0  0  0  0  0  0
   -6.6912    1.0656   -5.6900 H   0  0  0  0  0  0  0  0  0  0  0  0
   -6.2423   -1.3736   -5.6393 H   0  0  0  0  0  0  0  0  0  0  0  0
   -5.2506    2.6192   -4.3991 H   0  0  0  0  0  0  0  0  0  0  0  0
   -4.3614   -2.2623   -4.3048 H   0  0  0  0  0  0  0  0  0  0  0  0
   -3.3675    1.7432   -3.0605 H   0  0  0  0  0  0  0  0  0  0  0  0
    2.9268   -0.7348    0.1206 H   0  0  0  0  0  0  0  0  0  0  0  0
    1.9956   -1.1706   -1.3118 H   0  0  0  0  0  0  0  0  0  0  0  0
    0.6016   -2.4615    0.0651 H   0  0  0  0  0  0  0  0  0  0  0  0
    1.5673   -1.9612    1.4527 H   0  0  0  0  0  0  0  0  0  0  0  0
   -0.2021    1.8540   -1.2941 H   0  0  0  0  0  0  0  0  0  0  0  0
    0.7267    0.8584   -2.3850 H   0  0  0  0  0  0  0  0  0  0  0  0
   -1.7747   -1.5660    0.0384 H   0  0  0  0  0  0  0  0  0  0  0  0
    2.0727    1.4550   -0.3366 H   0  0  0  0  0  0  0  0  0  0  0  0
   -0.4437   -0.8257    2.0858 H   0  0  0  0  0  0  0  0  0  0  0  0
   -0.4286   -1.1282   -1.8241 H   0  0  0  0  0  0  0  0  0  0  0  0
    2.2119    0.2339    2.2717 H   0  0  0  0  0  0  0  0  0  0  0  0
    1.9126    1.9947    2.0473 H   0  0  0  0  0  0  0  0  0  0  0  0
    0.8168    1.0214    3.0924 H   0  0  0  0  0  0  0  0  0  0  0  0
   -4.0003    0.3568    3.4217 H   0  0  0  0  0  0  0  0  0  0  0  0
   -4.6456    0.7777    1.8048 H   0  0  0  0  0  0  0  0  0  0  0  0
   -3.3742    1.7812    2.5510 H   0  0  0  0  0  0  0  0  0  0  0  0
   -0.1113    1.4723    0.9886 H   0  0  0  0  0  0  0  0  0  0  0  0
  1  2  2  0  0  0  0
  1  3  1  0  0  0  0
  2  4  1  0  0  0  0
  3  5  2  0  0  0  0
  4  6  2  0  0  0  0
  5  6  1  0  0  0  0
  6  7  1  0  0  0  0
  7 19  2  0  0  0  0
  7 21  1  0  0  0  0
  8 12  1  0  0  0  0
  8 20  2  0  0  0  0
  8 22  1  0  0  0  0
  9 10  1  0  0  0  0
  9 13  1  0  0  0  0
 10 14  1  0  0  0  0
 11 13  1  0  0  0  0
 11 15  1  0  0  0  0
 12 14  1  0  0  0  0
 12 15  1  0  0  0  0
 13 18  1  0  0  0  0
 14 18  1  0  0  0  0
 15 21  1  1  0  0  0
 16 18  1  0  0  0  0
 17 22  1  0  0  0  0
  1 23  1  0  0  0  0
  2 24  1  0  0  0  0
  3 25  1  0  0  0  0
  4 26  1  0  0  0  0
  5 27  1  0  0  0  0
  9 28  1  0  0  0  0
  9 29  1  0  0  0  0
 10 30  1  0  0  0  0
 10 31  1  0  0  0  0
 11 32  1  0  0  0  0
 11 33  1  0  0  0  0
 12 34  1  6  0  0  0
 13 35  1  1  0  0  0
 14 36  1  6  0  0  0
 15 37  1  6  0  0  0
 16 38  1  0  0  0  0
 16 39  1  0  0  0  0
 16 40  1  0  0  0  0
 17 41  1  0  0  0  0
 17 42  1  0  0  0  0
 17 43  1  0  0  0  0
 18 44  1  0  0  0  0
M  CHG  1  18   1
M  END
> <OE_AM1_SCF_ENERGY>
13.2561

$$$$
